[TITLE]
;;Project Title/Notes

[OPTIONS]
;;Option             Value
FLOW_UNITS           CMS
INFILTRATION         GREEN_AMPT
FLOW_ROUTING         DYNWAVE
LINK_OFFSETS         DEPTH
MIN_SLOPE            0
ALLOW_PONDING        NO
SKIP_STEADY_STATE    NO

START_DATE           01/01/2050
START_TIME           00:00:00
REPORT_START_DATE    01/01/2050
REPORT_START_TIME    00:00:00
END_DATE             01/01/2051
END_TIME             00:00:00
SWEEP_START          01/01
SWEEP_END            12/31
DRY_DAYS             0
REPORT_STEP          01:00:00
WET_STEP             06:00:00
DRY_STEP             01:00:00
ROUTING_STEP         0:01:00 

INERTIAL_DAMPING     PARTIAL
NORMAL_FLOW_LIMITED  BOTH
FORCE_MAIN_EQUATION  H-W
VARIABLE_STEP        0.75
LENGTHENING_STEP     0
MIN_SURFAREA         1.14
MAX_TRIALS           8
HEAD_TOLERANCE       0.0015
SYS_FLOW_TOL         5
LAT_FLOW_TOL         5
MINIMUM_STEP         0.5
THREADS              1

[FILES]
;;Interfacing Files
USE HOTSTART "E:\PhDs\hieu\swmm_monte_carlo_TS\data\S-SWMM.hsf"

[EVAPORATION]
;;Data Source    Parameters
;;-------------- ----------------
CONSTANT         0.0
DRY_ONLY         NO

[JUNCTIONS]
;;Name           Elevation  MaxDepth   InitDepth  SurDepth   Aponded   
;;-------------- ---------- ---------- ---------- ---------- ----------
J1_G216          7.79       0          0          0          0         
J12_M558         -0.770     0          0          0          0         
J7_T0            -12.115    0          0          0          0         
J9_BA188         -22.24     0          0          0          0         
J14_MK217001     -17.975    0          0          0          0         
J15_MK195001     -15.303    0          0          0          0         
J16_VAM16600     -10.47     0          0          0          0         
J11_BA070001     -13.44     0          0          0          0         
J17_MK123        -18.342    0          0          0          0         
J18_COC26500     -11.39     0          0          0          0         
J20_MK060001     -12.334    0          0          0          0         
J19_MK096001     -11.363    0          0          0          0         
J2_G132          -0.303     0          0          0          0         
J3_G104          0.502      0          0          0          0         
J4_G56           -0.308     0          0          0          0         
J5_G36           0.042      0          0          0          0         
J6_G0            -5.068     0          0          0          0         
J13_MK235001     -12.842    0          0          0          0         
J8_BA221         -10.552    0          0          0          0         
J10_BA155        -17.11     0          0          0          0         
J29_M448U        -33.088    0          0          0          0         
J30_M251D        -10.033    0          0          0          0         
J31_BA098        -15.233    0          0          0          0         
J32_BA177001     -14.09     0          0          0          0         
J30_BA109        -16.65     0          0          0          0         
J_B332           -7.581     0          0          0          0         
J_M328           -13.035    0          0          0          0         
31               -10        0          0          0          0         
32               -11.087    0          0          0          0         
33               -12.261    0          0          0          0         

[OUTFALLS]
;;Name           Elevation  Type       Stage Data       Gated    Route To        
;;-------------- ---------- ---------- ---------------- -------- ----------------
OUT1             -12.879    TIMESERIES SEALEVEL2050TranDe NO                       
OUT2             -10.99     TIMESERIES SEALEVEL2050TranDe NO                       
OUT3             -8.58      TIMESERIES SEALEVEL2050Bentrai NO                       
OUT4             -11.1      TIMESERIES SEALEVEL2050Bentrai NO                       
OUT5             -9.47      TIMESERIES SEALEVEL2050AnThuan NO                       
OUT6             -9.532     TIMESERIES SEALEVEL2050AnThuan NO                       
OUT7             -8.34      TIMESERIES SEALEVEL2050AnThuan NO                       

[CONDUITS]
;;Name           From Node        To Node          Length     Roughness  InOffset   OutOffset  InitFlow   MaxFlow   
;;-------------- ---------------- ---------------- ---------- ---------- ---------- ---------- ---------- ----------
C11_TRAND16      J11_BA070001     OUT1             38515.8    0.00669790336642 0          0          0          0         
C12              J11_BA070001     OUT2             42124.90   0.0125529255293 0          0          0          0         
C16              J14_MK217001     J15_MK195001     22671.35   0.0302294320603 0          0          0          0         
C19_M158         J15_MK195001     J17_MK123        71127.37   0.0125529255293 0          0          0          0         
C20_COC47        J17_MK123        J18_COC26500     66185.03   0.0125529255293 0          0          0          0         
C21_COC14        J18_COC26500     OUT3             18266.51   0.0125529255293 0          0          0          0         
C22_COC15        J18_COC26500     OUT4             21024.54   0.0125529255293 0          0          0          0         
C17              J14_MK217001     J16_VAM16600     19720.68   0.06       0          0          0          0         
C14              J16_VAM16600     J9_BA188         5998.68    0.0207343980715 0          0          0          0         
C18              J16_VAM16600     J15_MK195001     9265.58    0.0599881112786 0          0          0          0         
C23_MK105        J17_MK123        J19_MK096001     26776.8    0.0125529255293 0          0          0          0         
C24_HAM38        J19_MK096001     OUT5             70517.11   0.0125529255293 0          0          0          0         
C25_MK078        J19_MK096001     J20_MK060001     36640.53   0.0125529255293 0          0          0          0         
C26_CUADAI21     J20_MK060001     OUT6             34104.11   0.0125529255293 0          0          0          0         
C27_MK039        J20_MK060001     OUT7             37295.48   0.0125529255293 0          0          0          0         
C1_G176          J1_G216          J2_G132          107149.50  0.0414024588696 0          0          0          0         
C2_G116          J2_G132          J3_G104          30782.43   0.0414024588696 0          0          0          0         
C3_G80           J3_G104          J4_G56           46523.86   0.0414024588696 0          0          0          0         
C4_G44           J4_G56           J5_G36           22106.30   0.0414024588696 0          0          0          0         
C5_G160          J5_G36           J6_G0            38432.00   0.0414024588696 0          0          0          0         
C6_T60000U       J6_G0            J7_T0            120737.18  0.0103068595481 0          0          0          0         
C36_M504         J12_M558         J29_M448U        112072.68  0.012580387999 0          0          0          0         
C37_M396         J29_M448U        J7_T0            106337.27  0.0330540610149 0          0          0          0         
C39_C238001      J30_M251D        J13_MK235001     15000.52   0.0100355393443 0          0          0          0         
C41_BA085000     J31_BA098        J11_BA070001     28282.80   0.0125529255293 0          0          0          0         
C42              J9_BA188         J32_BA177001     7100.50    0.0235479433415 0          0          0          0         
C43_BA168        J32_BA177001     J10_BA155        24815.20   0.0125529255293 0          0          0          0         
C43_BA132        J10_BA155        J30_BA109        45010.50   0.0125529255293 0          0          0          0         
C44_BA106        J30_BA109        J31_BA098        10943.60   0.0125529255293 0          0          0          0         
C45_B340         J7_T0            J_B332           12636.76   0.0495366736897 0          0          0          0         
C46_B272         J_B332           J8_BA221         107609.30  0.0465418320984 0          0          0          0         
C47_M340         J7_T0            J_M328           20074.98   0.06       0          0          0          0         
C48_M288         J_M328           J30_M251D        77849.19   0.06       0          0          0          0         
C52              J13_MK235001     31               12696.52   0.0337673932747 0          0          0          0         
C53              31               J14_MK217001     4145.5     0.0176373575107 0          0          0          0         
C54              J13_MK235001     31               10005.37   0.0409646569077 0          0          0          0         
C55_B21801       J8_BA221         32               3978.50    0.0340546932852 0          0          0          0         
C56_B214         32               33               10946.20   0.0525391098349 0          0          0          0         
C57_B212Ri       32               33               10065.06   0.0444277078767 0          0          0          0         
C58              33               J9_BA188         18353.40   0.0502907881473 0          0          0          0         

[XSECTIONS]
;;Link           Shape        Geom1            Geom2      Geom3      Geom4      Barrels    Culvert   
;;-------------- ------------ ---------------- ---------- ---------- ---------- ---------- ----------
C11_TRAND16      IRREGULAR    C11              0          0          0          1                    
C12              IRREGULAR    C12              0          0          0          1                    
C16              IRREGULAR    C16              0          0          0          1                    
C19_M158         IRREGULAR    C19              0          0          0          1                    
C20_COC47        IRREGULAR    C20              0          0          0          1                    
C21_COC14        IRREGULAR    C21              0          0          0          1                    
C22_COC15        IRREGULAR    C22              0          0          0          1                    
C17              IRREGULAR    C17              0          0          0          1                    
C14              IRREGULAR    C141             0          0          0          1                    
C18              IRREGULAR    C18              0          0          0          1                    
C23_MK105        IRREGULAR    C23              0          0          0          1                    
C24_HAM38        IRREGULAR    C24              0          0          0          1                    
C25_MK078        IRREGULAR    C25              0          0          0          1                    
C26_CUADAI21     IRREGULAR    C26              0          0          0          1                    
C27_MK039        IRREGULAR    C27_MK039        0          0          0          1                    
C1_G176          IRREGULAR    C1               0          0          0          1                    
C2_G116          IRREGULAR    C2               0          0          0          1                    
C3_G80           IRREGULAR    C3               0          0          0          1                    
C4_G44           IRREGULAR    C4               0          0          0          1                    
C5_G160          IRREGULAR    C5               0          0          0          1                    
C6_T60000U       IRREGULAR    C6               0          0          0          1                    
C36_M504         IRREGULAR    C36              0          0          0          1                    
C37_M396         IRREGULAR    C37              0          0          0          1                    
C39_C238001      IRREGULAR    C39              0          0          0          1                    
C41_BA085000     IRREGULAR    C41              0          0          0          1                    
C42              IRREGULAR    C42              0          0          0          1                    
C43_BA168        IRREGULAR    C43_BA168        0          0          0          1                    
C43_BA132        IRREGULAR    C43_BA132        0          0          0          1                    
C44_BA106        IRREGULAR    C44_BA106        0          0          0          1                    
C45_B340         IRREGULAR    C45_B340         0          0          0          1                    
C46_B272         IRREGULAR    C46              0          0          0          1                    
C47_M340         IRREGULAR    C47              0          0          0          1                    
C48_M288         IRREGULAR    C48              0          0          0          1                    
C52              IRREGULAR    C523             0          0          0          1                    
C53              IRREGULAR    C53              0          0          0          1                    
C54              IRREGULAR    C54              0          0          0          1                    
C55_B21801       IRREGULAR    C55_B21801       0          0          0          1                    
C56_B214         IRREGULAR    C56_B214         0          0          0          1                    
C57_B212Ri       IRREGULAR    C57_B212RI       0          0          0          1                    
C58              IRREGULAR    C58              0          0          0          1                    

[TRANSECTS]
;;Transect Data in HEC-2 format
;
NC 0.15     0.15     0.0414024588696
X1 C1                400      36741.25 36905.27 0.0      0.0      0.0      0.0      0.0     
GR 12.01    0.00     11.92    164.02   11.81    328.05   11.69    492.07   11.58    656.09  
GR 11.46    820.12   11.34    984.14   11.22    1148.16  11.11    1312.19  11.00    1476.21 
GR 10.90    1640.23  10.79    1804.26  10.69    1968.28  10.58    2132.30  10.48    2296.33 
GR 10.38    2460.35  10.28    2624.38  10.18    2788.40  10.08    2952.42  10.01    3116.45 
GR 9.96     3280.47  9.90     3444.49  9.82     3772.54  9.82     3936.56  9.80     4264.61 
GR 9.75     4428.63  9.67     4592.66  9.58     4756.68  9.51     4920.70  9.43     5084.73 
GR 9.34     5248.75  9.26     5412.77  9.16     5576.80  9.07     5740.82  9.07     5904.84 
GR 9.07     6068.87  9.08     6232.89  9.09     6396.91  9.09     6560.94  9.06     6724.96 
GR 9.02     6888.98  9.00     7053.01  8.98     7217.03  8.94     7381.05  8.78     7709.10 
GR 8.69     7873.12  8.60     8037.15  8.51     8201.17  8.43     8365.19  8.34     8529.22 
GR 8.25     8693.24  8.15     8857.27  8.06     9021.29  7.99     9185.31  7.95     9349.34 
GR 7.92     9513.36  7.88     9677.38  7.85     9841.41  7.83     10005.43 7.80     10169.45
GR 7.77     10333.48 7.74     10497.50 7.71     10661.52 7.68     10825.55 7.64     10989.57
GR 7.61     11153.59 7.59     11317.62 7.59     11481.64 7.61     11645.66 7.63     11809.69
GR 7.64     11973.71 7.66     12137.73 7.66     12301.76 7.67     12465.78 7.68     12629.80
GR 7.69     12793.83 7.70     12957.85 7.70     13121.87 7.70     13285.90 7.69     13449.92
GR 7.67     13613.94 7.65     13777.97 7.63     13941.99 7.61     14106.01 7.60     14270.04
GR 7.58     14434.06 7.56     14598.08 7.54     14762.11 7.53     14926.13 7.51     15090.16
GR 7.49     15254.18 7.47     15418.20 7.44     15582.23 7.42     15746.25 7.39     15910.27
GR 7.37     16074.30 7.34     16238.32 7.32     16402.34 7.30     16566.37 7.29     16730.39
GR 7.28     16894.41 7.28     17058.44 7.31     17222.46 7.34     17386.48 7.36     17550.51
GR 7.36     17714.53 7.34     17878.55 7.31     18042.58 7.28     18206.60 7.25     18370.62
GR 7.23     18534.65 7.21     18698.67 7.18     18862.69 7.15     19026.72 7.12     19190.74
GR 7.10     19354.76 7.09     19518.79 7.09     19682.81 7.09     19846.83 7.09     20010.86
GR 7.10     20174.88 7.09     20338.90 7.09     20502.93 7.09     20666.95 7.08     20830.97
GR 7.06     20995.00 7.05     21159.02 7.03     21323.05 7.01     21487.07 6.98     21651.09
GR 6.92     21815.12 6.85     21979.14 6.79     22143.16 6.73     22307.19 6.68     22471.21
GR 6.63     22635.23 6.59     22799.26 6.54     22963.28 6.49     23127.30 6.44     23291.33
GR 6.40     23455.35 6.38     23619.37 6.39     23783.40 6.42     23947.42 6.42     24111.44
GR 6.42     24275.47 6.41     24439.49 6.41     24603.51 6.42     24767.54 6.40     24931.56
GR 6.33     25095.58 6.26     25259.61 6.21     25423.63 6.16     25587.65 6.11     25751.68
GR 6.12     25915.70 6.13     26079.72 6.14     26243.75 6.12     26407.77 6.10     26571.79
GR 6.08     26735.82 6.06     26899.84 6.06     27063.86 6.08     27227.89 6.10     27391.91
GR 6.12     27555.94 6.13     27719.96 6.15     27883.98 6.17     28048.01 6.20     28212.03
GR 6.23     28376.05 6.26     28540.08 6.28     28704.10 6.29     28868.12 6.28     29032.15
GR 6.25     29196.17 6.21     29360.19 6.17     29524.22 6.13     29688.24 6.10     29852.26
GR 6.06     30016.29 6.03     30180.31 6.00     30344.33 5.97     30508.36 5.90     30672.38
GR 5.84     30836.40 5.79     31000.43 5.72     31164.45 5.65     31328.47 5.58     31492.50
GR 5.51     31656.52 5.46     31820.54 5.41     31984.57 5.37     32148.59 5.35     32312.61
GR 5.33     32476.64 5.32     32640.66 5.30     32804.68 5.30     32968.71 5.29     33132.73
GR 5.27     33296.75 5.25     33460.78 5.25     33624.80 5.25     33788.83 5.24     33952.85
GR 5.22     34116.87 5.18     34280.90 5.13     34444.92 5.08     34608.94 5.04     34772.97
GR 5.00     34936.99 4.97     35101.01 4.92     35265.04 4.87     35429.06 4.82     35593.08
GR 4.77     35757.11 4.71     35921.13 4.65     36085.15 4.58     36249.18 4.52     36413.20
GR 4.46     36577.22 4.41     36741.25 3.20     36757.40 3.20     36775.00 3.20     36793.00
GR 4.39     36905.27 4.44     37069.29 4.51     37233.32 4.56     37397.34 4.62     37561.36
GR 4.67     37725.39 4.71     37889.41 4.76     38053.43 4.80     38217.46 4.85     38381.48
GR 4.90     38545.50 4.94     38709.53 4.98     38873.55 5.02     39037.57 5.08     39201.60
GR 5.14     39365.62 5.21     39529.64 5.29     39693.67 5.37     39857.69 5.46     40021.72
GR 5.54     40185.74 5.63     40349.76 5.70     40513.79 5.78     40677.81 5.85     40841.83
GR 5.92     41005.86 5.98     41169.88 6.03     41333.90 6.08     41497.93 6.14     41661.95
GR 6.18     41825.97 6.21     41990.00 6.25     42154.02 6.29     42318.04 6.34     42482.07
GR 6.40     42646.09 6.46     42810.11 6.51     42974.14 6.55     43138.16 6.58     43302.18
GR 6.59     43466.21 6.61     43630.23 6.62     43794.25 6.63     43958.28 6.65     44122.30
GR 6.67     44286.32 6.72     44450.35 6.77     44614.37 6.81     44778.39 6.85     44942.42
GR 6.89     45106.44 6.93     45270.46 6.96     45434.49 6.98     45598.51 6.99     45762.53
GR 7.02     45926.56 7.05     46090.58 7.09     46254.61 7.13     46418.63 7.17     46582.65
GR 7.22     46746.68 7.26     46910.70 7.29     47074.72 7.29     47238.75 7.27     47402.77
GR 7.28     47566.79 7.34     47730.82 7.39     47894.84 7.43     48058.86 7.47     48222.89
GR 7.51     48386.91 7.54     48550.93 7.57     48714.96 7.61     48878.98 7.64     49043.00
GR 7.68     49207.03 7.72     49371.05 7.76     49535.07 7.79     49699.10 7.79     49863.12
GR 7.79     50027.14 7.80     50191.17 7.83     50355.19 7.87     50519.21 7.92     50683.24
GR 7.97     50847.26 8.03     51011.28 8.10     51175.31 8.17     51339.33 8.23     51503.35
GR 8.28     51667.38 8.32     51831.40 8.36     51995.42 8.39     52159.45 8.43     52323.47
GR 8.46     52487.50 8.45     52651.52 8.38     52815.54 8.34     52979.57 8.39     53143.59
GR 8.52     53307.61 8.68     53471.64 8.85     53635.66 8.99     53799.68 9.03     53963.71
GR 9.00     54127.73 8.93     54291.75 8.80     54455.78 8.70     54619.80 8.86     54783.82
GR 9.05     54947.85 9.15     55111.87 9.24     55275.89 9.31     55439.92 9.38     55603.94
GR 9.44     55767.96 9.49     55931.99 9.56     56096.01 9.64     56260.03 9.73     56424.06
GR 9.80     56588.08 9.85     56752.10 9.87     56916.13 9.86     57080.15 9.83     57244.17
GR 9.82     57408.20 9.83     57572.22 9.80     57736.24 9.69     57900.27 9.53     58064.29
GR 9.37     58228.31 9.29     58392.34 9.41     58556.36 9.60     58720.39 9.77     58884.41
GR 9.94     59048.43 10.05    59212.46 10.07    59376.48 9.87     59540.50 9.62     59704.53
GR 9.80     59868.55 10.17    60032.57 10.38    60196.60 10.49    60360.62 10.55    60524.64
GR 10.63    60688.67 10.73    60852.69 10.83    61016.71 10.91    61180.74 10.93    61344.76
GR 10.92    61508.78 10.85    61672.81 10.77    61836.83 10.69    62000.85 10.62    62164.88
GR 10.58    62328.90 10.60    62492.92 10.67    62656.95 10.73    62820.97 10.77    62984.99
GR 10.83    63149.02 10.88    63313.04 10.94    63477.06 10.99    63641.09 11.07    63805.11
GR 11.14    63969.13 11.22    64133.16 11.29    64297.18 11.37    64461.20 11.45    64625.23
GR 11.53    64789.25 11.62    64953.28 11.74    65117.30 11.87    65281.32 11.98    65445.35
;
NC 0.15     0.15     0.0414024588696
X1 C2                400      13415.20 45051.04 0.0      0.0      0.0      0.0      0.0     
GR 12.03    0.00     11.81    200.23   11.72    400.45   11.69    600.68   11.67    800.91  
GR 11.69    1001.13  11.73    1201.36  11.77    1401.59  11.77    1601.82  11.71    1802.04 
GR 11.63    2002.27  11.49    2202.50  11.30    2402.72  11.11    2602.95  11.00    2803.18 
GR 10.94    3003.40  10.89    3203.63  10.81    3403.86  10.72    3604.08  10.64    3804.31 
GR 10.54    4004.54  10.45    4204.76  10.37    4404.99  10.29    4605.22  10.20    4805.44 
GR 10.13    5005.67  10.07    5205.90  10.04    5406.13  9.96     5606.35  9.77     5806.58 
GR 9.57     6006.81  9.37     6207.03  9.14     6407.26  8.97     6607.49  8.85     6807.71 
GR 8.74     7007.94  8.63     7208.17  8.53     7408.39  8.42     7608.62  8.31     7808.85 
GR 8.19     8009.07  8.06     8209.30  7.45     8409.53  6.93     8609.76  6.58     8809.98 
GR 6.25     9010.21  5.97     9210.44  5.83     9410.66  5.61     9610.89  5.38     9811.12 
GR 5.15     10011.34 4.97     10211.57 4.84     10411.80 4.53     10612.02 4.35     10812.25
GR 4.16     11012.48 3.90     11212.70 3.64     11412.93 3.32     11613.16 3.01     11813.38
GR 2.85     12013.61 2.70     12213.84 2.56     12414.07 2.44     12614.29 2.32     12814.52
GR 2.21     13014.75 2.11     13214.97 2.02     13415.20 1.92     13615.43 1.79     13815.65
GR 1.64     14015.88 1.49     14216.11 1.34     14416.33 1.17     14616.56 1.03     14816.79
GR 1.00     15017.01 1.00     15217.24 1.00     15417.47 -0.27    15617.69 -0.36    15817.92
GR -0.35    16018.15 -0.27    16218.38 -0.22    16418.60 -0.14    16618.83 -0.02    16819.06
GR 0.07     17019.28 0.04     17219.51 0.00     17419.74 -0.01    17619.96 0.11     17820.19
GR 0.23     18020.42 0.12     18220.64 -0.04    18420.87 -0.01    18621.10 0.09     18821.32
GR 0.19     19021.55 0.24     19221.78 0.27     19422.00 0.30     19622.23 0.43     19822.46
GR 0.45     20022.69 0.46     20222.91 0.48     20423.14 0.48     20623.37 0.48     20823.59
GR 0.48     21023.82 0.48     21224.05 0.47     21424.27 0.47     21624.50 0.45     21824.73
GR 0.43     22024.95 0.40     22225.18 0.40     22425.41 0.40     22625.63 0.42     22825.86
GR 0.45     23026.09 0.46     23226.32 0.45     23426.54 0.44     23626.77 0.44     23827.00
GR 0.43     24027.22 0.42     24227.45 0.41     24427.68 0.36     24627.90 0.40     24828.13
GR 0.40     25028.36 0.40     25228.58 0.40     25428.81 0.40     25629.04 0.40     25829.26
GR 0.40     26029.49 0.40     26229.72 0.40     26429.94 0.40     26630.17 0.40     26830.40
GR 0.40     27030.63 0.40     27230.85 0.40     27431.08 0.40     27631.31 0.40     27831.53
GR 0.40     28031.76 0.40     28231.99 0.40     28432.21 0.40     28632.44 0.40     28832.67
GR 0.40     29032.89 0.40     29233.12 0.39     29433.35 0.36     29633.57 0.32     29833.80
GR 0.31     30034.03 0.33     30234.25 0.36     30434.48 0.38     30634.71 0.40     30834.94
GR 0.40     31035.16 0.40     31235.39 0.39     31435.62 0.35     31635.84 0.32     31836.07
GR 0.30     32036.30 0.30     32236.52 0.30     32436.75 0.29     32636.98 0.28     32837.20
GR 0.28     33037.43 0.27     33237.66 0.27     33437.88 0.27     33638.11 0.27     33838.34
GR 0.26     34038.56 0.23     34238.79 0.20     34439.02 0.20     34639.25 0.20     34839.47
GR 0.20     35039.70 0.16     35239.93 0.12     35440.15 0.09     35640.38 0.05     35840.61
GR -0.01    36040.83 -0.06    36241.06 -0.08    36441.29 -0.09    36641.51 -0.12    36841.74
GR -0.15    37041.97 -0.18    37242.19 -0.19    37442.42 1.00     37642.65 1.00     37842.88
GR 1.00     38043.10 1.00     38243.33 1.00     38443.56 1.01     38643.78 1.04     38844.01
GR 1.08     39044.24 1.12     39244.46 1.17     39444.69 1.21     39644.92 1.26     39845.14
GR 1.30     40045.37 1.35     40245.60 1.40     40445.82 1.45     40646.05 1.50     40846.28
GR 1.54     41046.50 1.59     41246.73 1.63     41446.96 1.68     41647.19 1.72     41847.41
GR 1.75     42047.64 1.76     42247.87 1.78     42448.09 1.80     42648.32 1.82     42848.55
GR 1.82     43048.77 1.84     43249.00 1.86     43449.23 1.88     43649.45 1.89     43849.68
GR 1.78     44049.91 1.47     44250.13 1.06     44450.36 1.00     44650.59 1.52     44850.81
GR 2.05     45051.04 2.17     45251.27 2.18     45451.50 2.16     45651.72 2.21     45851.95
GR 2.28     46052.18 2.33     46252.40 2.35     46452.63 2.39     46652.86 2.44     46853.08
GR 2.49     47053.31 2.56     47253.54 2.61     47453.76 2.56     47653.99 2.53     47854.22
GR 2.51     48054.44 2.47     48254.67 2.45     48454.90 2.46     48655.12 2.48     48855.35
GR 2.60     49055.58 2.73     49255.81 2.78     49456.03 2.82     49656.26 2.88     49856.49
GR 2.93     50056.71 2.97     50256.94 3.01     50457.17 3.12     50657.39 3.21     50857.62
GR 3.28     51057.85 3.33     51258.07 3.39     51458.30 3.45     51658.53 3.51     51858.75
GR 3.56     52058.98 3.61     52259.21 3.66     52459.44 3.72     52659.66 3.77     52859.89
GR 3.81     53060.12 3.83     53260.34 3.84     53460.57 3.86     53660.80 3.88     53861.02
GR 3.88     54061.25 3.89     54261.48 3.91     54461.70 3.91     54661.93 3.90     54862.16
GR 3.89     55062.38 3.88     55262.61 3.88     55462.84 3.89     55663.06 3.94     55863.29
GR 3.99     56063.52 4.03     56263.75 4.08     56463.97 4.12     56664.20 4.15     56864.43
GR 4.17     57064.65 4.19     57264.88 4.21     57465.11 4.24     57665.33 4.28     57865.56
GR 4.32     58065.79 4.37     58266.01 4.42     58466.24 4.47     58666.47 4.52     58866.69
GR 4.56     59066.92 4.61     59267.15 4.65     59467.37 4.68     59667.60 4.71     59867.83
GR 4.74     60068.06 4.76     60268.28 4.79     60468.51 4.81     60668.74 4.84     60868.96
GR 4.88     61069.19 4.92     61269.42 4.97     61469.64 5.00     61669.87 5.06     61870.10
GR 5.15     62070.32 5.22     62270.55 5.29     62470.78 5.35     62671.00 5.42     62871.23
GR 5.49     63071.46 5.56     63271.68 5.63     63471.91 5.70     63672.14 5.76     63872.37
GR 5.83     64072.59 5.90     64272.82 5.97     64473.05 6.05     64673.27 6.22     64873.50
GR 6.38     65073.73 6.52     65273.95 6.66     65474.18 6.81     65674.41 6.97     65874.63
GR 7.19     66074.86 7.53     66275.09 7.77     66475.31 7.91     66675.54 8.00     66875.77
GR 7.90     67076.00 7.64     67276.22 7.35     67476.45 7.05     67676.68 6.89     67876.90
GR 6.72     68077.13 6.71     68277.36 6.91     68477.58 7.01     68677.81 7.07     68878.04
GR 7.13     69078.26 7.19     69278.49 7.22     69478.72 7.23     69678.94 7.25     69879.17
GR 7.28     70079.40 7.31     70279.62 7.36     70479.85 7.40     70680.08 7.45     70880.31
GR 7.50     71080.53 7.56     71280.76 7.59     71480.99 7.64     71681.21 7.69     71881.44
GR 7.72     72081.67 7.79     72281.89 7.85     72482.12 7.93     72682.35 8.01     72882.57
GR 8.21     73082.80 8.51     73283.03 8.92     73483.25 9.07     73683.48 9.13     73883.71
GR 9.17     74083.93 9.20     74284.16 9.23     74484.39 9.27     74684.62 9.30     74884.84
GR 9.34     75085.07 9.38     75285.30 9.43     75485.52 9.49     75685.75 9.56     75885.98
GR 9.66     76086.20 9.80     76286.43 9.97     76486.66 10.07    76686.88 10.17    76887.11
GR 10.27    77087.34 10.36    77287.56 10.43    77487.79 10.51    77688.02 10.59    77888.25
GR 10.72    78088.47 10.89    78288.70 11.05    78488.93 11.17    78689.15 11.27    78889.38
GR 11.38    79089.61 11.51    79289.83 11.67    79490.06 11.83    79690.29 12.01    79890.51
;
NC 0.15     0.15     0.0414024588696
X1 C3                400      23084.41 51600.44 0.0      0.0      0.0      0.0      0.0     
GR 11.58    0.00     11.00    193.99   10.60    387.97   10.44    581.96   10.33    775.95  
GR 10.14    969.93   9.99     1163.92  9.86     1357.91  9.75     1551.89  9.63     1745.88 
GR 9.49     1939.87  9.35     2133.85  9.19     2327.84  9.02     2521.83  8.86     2715.81 
GR 8.71     2909.80  8.55     3103.79  8.38     3297.77  8.20     3491.76  8.03     3685.75 
GR 7.89     3879.73  7.74     4073.72  7.60     4267.71  7.48     4461.69  7.38     4655.68 
GR 7.31     4849.67  7.22     5043.65  7.10     5237.64  7.00     5431.62  6.88     5625.61 
GR 6.77     5819.60  6.67     6013.58  6.58     6207.57  6.48     6401.56  6.38     6595.54 
GR 6.27     6789.53  6.17     6983.52  6.03     7177.50  5.92     7371.49  5.78     7565.48 
GR 5.67     7759.46  5.61     7953.45  5.53     8147.44  5.30     8341.42  5.10     8535.41 
GR 4.93     8729.40  4.76     8923.38  4.60     9117.37  4.43     9311.36  4.34     9406.34 
GR 4.18     9552.84  4.04     9699.33  3.95     9893.32  3.89     10087.30 3.85     10281.29